
Circuit: * /home/krzy0s/snap/kicad-snap/common/sim_test/sim_test.cir

Doing analysis at TEMP = 27.000000 and TNOM = 27.000000


Initial Transient Solution
--------------------------

Node                                   Voltage
----                                   -------
/n1                                          0
/n0                                          0
v1#branch                                    0



No. of Data Rows : 512
Doing analysis at TEMP = 27.000000 and TNOM = 27.000000

ERROR: (internal)  This operation is not defined for display type printf.
Can't open viewport for graphics.
Note: No ".plot", ".print", or ".fourier" lines; no simulations run
